psse/psse-converter/src/test/resources/twoSubstations_rev35.rawx
{
    "network":{
        "caseid":{
            "fields":["ic", "sbase", "rev", "xfrrat", "nxfrat", "basfrq", "title1", "title2"], 
            "data":[0, 100.0000, 35, 0, 1, 50.00000, "TITLE: TWO SUBSTATIONS CASE", "MADE ON: FECHA=2024-12-05 HORA=17:21:00"]
        }, 
        "general":{
            "fields":["thrshz", "pqbrak", "blowup", "maxisollvls", "camaxreptsln", "chkdupcntlbl"], 
            "data":[0.1000000E-03, 0.7000000, 5.000000, 4, 20, 0]
        }, 
        "gauss":{
            "fields":["itmx", "accp", "accq", "accm", "tol"], 
            "data":[100, 1.600000, 1.600000, 1.000000, 0.1000000E-03]
        }, 
        "newton":{
            "fields":["itmxn", "accn", "toln", "vctolq", "vctolv", "dvlim", "ndvfct"], 
            "data":[20, 1.000000, 0.1000000, 0.1000000, 0.1000000E-04, 0.9900000, 0.9900000]
        }, 
        "adjust":{
            "fields":["adjthr", "acctap", "taplim", "swvbnd", "mxtpss", "mxswim"], 
            "data":[0.5000000E-02, 1.000000, 0, 100.0000, 99, 10]
        }, 
        "tysl":{
            "fields":["itmxty", "accty", "tolty"], 
            "data":[20, 1.000000, 0.1000000E-04]
        }, 
        "solver":{
            "fields":["method", "actaps", "areain", "phshft", "dctaps", "swshnt", "flatst", "varlim", "nondiv"], 
            "data":["FDNS", 0, 0, 0, 1, 1, 1, 99, 0]
        }, 
        "rating":{
            "fields":["irate", "name", "desc"], 
            "data":[
                [1, "RATE1", "RATING SET 1"], 
                [2, "RATE2", "RATING SET 2"], 
                [3, "RATE3", "RATING SET 3"], 
                [4, "RATE4", "RATING SET 4"], 
                [5, "RATE5", "RATING SET 5"], 
                [6, "RATE6", "RATING SET 6"], 
                [7, "RATE7", "RATING SET 7"], 
                [8, "RATE8", "RATING SET 8"], 
                [9, "RATE9", "RATING SET 9"], 
                [10, "RATE10", "RATING SET 10"], 
                [11, "RATE11", "RATING SET 11"], 
                [12, "RATE12", "RATING SET 12"]
            ]
        }, 
        "bus":{
            "fields":["ibus", "name", "baskv", "ide", "area", "zone", "owner", "vm", "va", "nvhi", "nvlo", "evhi", "evlo"], 
            "data":[
                [1, "BUS-S1-220", 220.0000, 3, 1, 1, 1, 1.000000, 0.000000, 1.100000, 0.9000000, 1.100000, 0.9000000], 
                [2, "BUS-S2-220", 220.0000, 1, 1, 1, 1, 0.9968300, -1.191800, 1.100000, 0.9000000, 1.100000, 0.9000000], 
                [3, "BUS-S2-15", 15.00000, 2, 1, 1, 1, 0.9569200, -1.191800, 1.100000, 0.9000000, 1.100000, 0.9000000], 
                [4, "BUS-S2-45", 45.00000, 1, 1, 1, 1, 1.023090, -4.015800, 1.100000, 0.9000000, 1.100000, 0.9000000], 
                [5, "BUS-S2-10", 10.00000, 1, 1, 1, 1, 1.009900, -4.860000, 1.100000, 0.9000000, 1.100000, 0.9000000]
            ]
        }, 
        "load":{
            "fields":["ibus", "loadid", "stat", "area", "zone", "pl", "ql", "ip", "iq", "yp", "yq", "owner", "scale", "intrpt", "dgenp", "dgenq", "dgenm", "loadtype", "name"], 
            "data":[
                [4, "1", 1, 1, 3, 8.105000, -1.177000, 0.000000, 0.000000, 0.000000, 0.000000, 1, 1, 0, 0.000000, 0.000000, 0, "", ""], 
                [5, "1", 1, 1, 3, 6.428000, -2.763000, 0.000000, 0.000000, 0.000000, 0.000000, 1, 1, 0, 0.000000, 0.000000, 0, "", ""]
            ]
        }, 
        "fixshunt":{
            "fields":["ibus", "shntid", "stat", "gl", "bl", "name"], 
            "data":[]
        }, 
        "generator":{
            "fields":["ibus", "machid", "pg", "qg", "qt", "qb", "vs", "ireg", "nreg", "mbase", "zr", "zx", "rt", "xt", "gtap", "stat", "rmpct", "pt", "pb", "baslod", "o1", "f1", "o2", "f2", "o3", "f3", "o4", "f4", "wmod", "wpf", "droopname", "name"], 
            "data":[
                [1, "2", 0.000000, 0.000000, 10.83000, -10.83000, 1.000000, 1, 0, 39.47000, 0.000000, 1.000000, 0.000000, 0.000000, 1.000000, 0, 100.0000, 37.15000, 0.5000000, 0, 1, 1.000000, null, null, null, null, null, null, null, null, null, null], 
                [3, "1", 0.000000, 0.000000, 11.03000, -11.03000, 1.000000, 3, 0, 40.19000, 0.000000, 1.000000, 0.000000, 0.000000, 1.000000, 0, 100.0000, 37.83000, 0.5000000, 0, 1, 1.000000, null, null, null, null, null, null, null, null, null, null]
            ]
        }, 
        "acline":{
            "fields":["ibus", "jbus", "ckt", "rpu", "xpu", "bpu", "name", "rate1", "rate2", "rate3", "rate4", "rate5", "rate6", "rate7", "rate8", "rate9", "rate10", "rate11", "rate12", "gi", "bi", "gj", "bj", "stat", "bp", "met", "len", "o1", "f1", "o2", "f2", "o3", "f3", "o4", "f4"], 
            "data":[
                [1, 2, "3", 0.5321000E-01, 0.1287300, 0.1305000E-01, "LINE-S1-220-S2-220", 90.00000, 99.00000, 108.0000, 0.000000, 0.000000, 0.000000, 0.000000, 0.000000, 0.000000, 0.000000, 0.000000, 0.000000, 0.000000, 0.000000, 0.000000, 0.000000, 1, 0, 1, 0.000000, 1, 1.000000, null, null, null, null, null, null]
            ]
        }, 
        "sysswd":{
            "fields":["ibus", "jbus", "ckt", "xpu", "rsetnam", "stat", "nstat", "met", "stype", "name"], 
            "data":[]
        }, 
        "transformer":{
            "fields":["ibus", "jbus", "kbus", "ckt", "cw", "cz", "cm", "mag1", "mag2", "nmet", "name", "stat", "o1", "f1", "o2", "f2", "o3", "f3", "o4", "f4", "vecgrp", "zcod", "r1_2", "x1_2", "sbase1_2", "r2_3", "x2_3", "sbase2_3", "r3_1", "x3_1", "sbase3_1", "vmstar", "anstar", "windv1", "nomv1", "ang1", "wdg1rate1", "wdg1rate2", "wdg1rate3", "wdg1rate4", "wdg1rate5", "wdg1rate6", "wdg1rate7", "wdg1rate8", "wdg1rate9", "wdg1rate10", "wdg1rate11", "wdg1rate12", "cod1", "cont1", "node1", "rma1", "rmi1", "vma1", "vmi1", "ntp1", "tab1", "cr1", "cx1", "cnxa1", "windv2", "nomv2", "ang2", "wdg2rate1", "wdg2rate2", "wdg2rate3", "wdg2rate4", "wdg2rate5", "wdg2rate6", "wdg2rate7", "wdg2rate8", "wdg2rate9", "wdg2rate10", "wdg2rate11", "wdg2rate12", "cod2", "cont2", "node2", "rma2", "rmi2", "vma2", "vmi2", "ntp2", "tab2", "cr2", "cx2", "cnxa2", "windv3", "nomv3", "ang3", "wdg3rate1", "wdg3rate2", "wdg3rate3", "wdg3rate4", "wdg3rate5", "wdg3rate6", "wdg3rate7", "wdg3rate8", "wdg3rate9", "wdg3rate10", "wdg3rate11", "wdg3rate12", "cod3", "cont3", "node3", "rma3", "rmi3", "vma3", "vmi3", "ntp3", "tab3", "cr3", "cx3", "cnxa3"], 
            "data":[
                [2, 3, 0, "3", 1, 1, 1, 0.000000, 0.000000, 2, "T2D-S2-220-15", 1, 1, 1.000000, 0, 1.000000, 0, 1.000000, 0, 1.000000, "", null, 0.7120000E-02, 0.2840800, 100.0000, null, null, null, null, null, null, null, null, 1.041700, 0.000000, 0.000000, 60.00000, 66.00000, 72.00000, 0.000000, 0.000000, 0.000000, 0.000000, 0.000000, 0.000000, 0.000000, 0.000000, 0.000000, 0, 0, 0, 1.089000, 0.8049000, 1.100000, 0.9000000, 25, 0, 0.000000, 0.000000, 0.000000, 1.000000, 0.000000, null, null, null, null, null, null, null, null, null, null, null, null, null, null, null, null, null, null, null, null, null, null, null, null, null, null, null, null, null, null, null, null, null, null, null, null, null, null, null, null, null, null, null, null, null, null, null, null, null, null, null, null], 
                [2, 4, 5, "2", 1, 1, 1, 0.000000, 0.000000, 2, "T3D-S2-220-45-10", 1, 1, 1.000000, 0, 1.000000, 0, 1.000000, 0, 1.000000, "", 0, 0.1941000E-01, 0.3040100, 100.0000, 0.1422000E-01, 0.1710100, 100.0000, 0.1991000E-01, 0.5138200, 100.0000, 0.9696400, -4.106100, 1.038470, 0.000000, 0.000000, 30.00000, 33.00000, 36.00000, 0.000000, 0.000000, 0.000000, 0.000000, 0.000000, 0.000000, 0.000000, 0.000000, 0.000000, 0, 0, 0, 1.090950, 0.8181900, 1.100000, 0.9000000, 27, 0, 0.000000, 0.000000, 0.000000, 1.056000, 0.000000, 0.000000, 30.00000, 33.00000, 36.00000, 0.000000, 0.000000, 0.000000, 0.000000, 0.000000, 0.000000, 0.000000, 0.000000, 0.000000, 0, 0, 0, 1.056000, 1.056000, 1.100000, 0.9000000, 2, 0, 0.000000, 0.000000, 0.000000, 1.036360, 0.000000, 0.000000, 30.00000, 33.00000, 36.00000, 0.000000, 0.000000, 0.000000, 0.000000, 0.000000, 0.000000, 0.000000, 0.000000, 0.000000, 0, 0, 0, 1.036360, 1.036360, 1.100000, 0.9000000, 2, 0, 0.000000, 0.000000, 0.000000]
            ]
        }, 
        "area":{
            "fields":["iarea", "isw", "pdes", "ptol", "arname"], 
            "data":[]
        }, 
        "twotermdc":{
            "fields":["name", "mdc", "rdc", "setvl", "vschd", "vcmod", "rcomp", "delti", "met", "dcvmin", "cccitmx", "cccacc", "ipr", "nbr", "anmxr", "anmnr", "rcr", "xcr", "ebasr", "trr", "tapr", "tmxr", "tmnr", "stpr", "icr", "ndr", "ifr", "itr", "idr", "xcapr", "ipi", "nbi", "anmxi", "anmni", "rci", "xci", "ebasi", "tri", "tapi", "tmxi", "tmni", "stpi", "ici", "ndi", "ifi", "iti", "idi", "xcapi"], 
            "data":[]
        }, 
        "vscdc":{
            "fields":["name", "mdc", "rdc", "o1", "f1", "o2", "f2", "o3", "f3", "o4", "f4", "ibus1", "type1", "mode1", "dcset1", "acset1", "aloss1", "bloss1", "minloss1", "smax1", "imax1", "pwf1", "maxq1", "minq1", "vsreg1", "nreg1", "rmpct1", "ibus2", "type2", "mode2", "dcset2", "acset2", "aloss2", "bloss2", "minloss2", "smax2", "imax2", "pwf2", "maxq2", "minq2", "vsreg2", "nreg2", "rmpct2"], 
            "data":[]
        }, 
        "impcor":{
            "fields":["itable", "tap", "refact", "imfact"], 
            "data":[]
        }, 
        "ntermdc":{
            "fields":["name", "nconv", "ndcbs", "ndcln", "mdc", "vconv", "vcmod", "vconvn"], 
            "data":[]
        }, 
        "ntermdcconv":{
            "fields":["name", "ib", "nbrdg", "angmx", "angmn", "rc", "xc", "ebas", "tr", "tap", "tpmx", "tpmn", "tstp", "setvl", "dcpf", "marg", "cnvcod"], 
            "data":[]
        }, 
        "ntermdcbus":{
            "fields":["name", "idc", "ib", "area", "zone", "dcname", "idc2", "rgrnd", "owner"], 
            "data":[]
        }, 
        "ntermdclink":{
            "fields":["name", "idc", "jdc", "dcckt", "met", "rdc", "ldc"], 
            "data":[]
        }, 
        "msline":{
            "fields":["ibus", "jbus", "mslid", "met", "dum1", "dum2", "dum3", "dum4", "dum5", "dum6", "dum7", "dum8", "dum9"], 
            "data":[]
        }, 
        "zone":{
            "fields":["izone", "zoname"], 
            "data":[
                [1, "XA"]
            ]
        }, 
        "iatrans":{
            "fields":["arfrom", "arto", "trid", "ptran"], 
            "data":[]
        }, 
        "owner":{
            "fields":["iowner", "owname"], 
            "data":[]
        }, 
        "facts":{
            "fields":["name", "ibus", "jbus", "mode", "pdes", "qdes", "vset", "shmx", "trmx", "vtmn", "vtmx", "vsmx", "imx", "linx", "rmpct", "owner", "set1", "set2", "vsref", "fcreg", "nreg", "mname"], 
            "data":[]
        }, 
        "swshunt":{
            "fields":["ibus", "shntid", "modsw", "adjm", "stat", "vswhi", "vswlo", "swreg", "nreg", "rmpct", "rmidnt", "binit", "name", "s1", "n1", "b1", "s2", "n2", "b2", "s3", "n3", "b3", "s4", "n4", "b4", "s5", "n5", "b5", "s6", "n6", "b6", "s7", "n7", "b7", "s8", "n8", "b8"], 
            "data":[
                [3, "1", 0, 0, 1, 1.000000, 1.000000, 3, 0, 100.0000, "", 0.000000, "", 1, 1, 5.000000, 1, 1, 5.000000, null, null, null, null, null, null, null, null, null, null, null, null, null, null, null, null, null, null]
            ]
        }, 
        "gne":{
            "fields":["name", "model", "nterm", "bus1", "bus2", "nreal", "nintg", "nchar", "stat", "owner", "nmet", "real1", "real2", "real3", "real4", "real5", "real6", "real7", "real8", "real9", "real10", "intg1", "intg2", "intg3", "intg4", "intg5", "intg6", "intg7", "intg8", "intg9", "intg10", "char1", "char2", "char3", "char4", "char5", "char6", "char7", "char8", "char9", "char10"], 
            "data":[]
        }, 
        "indmach":{
            "fields":["ibus", "imid", "stat", "sc", "dc", "area", "zone", "owner", "name", "tc", "bc", "mbase", "ratekv", "pcode", "pset", "hconst", "aconst", "bconst", "dconst", "econst", "ra", "xa", "xm", "r1", "x1", "r2", "x2", "x3", "e1", "se1", "e2", "se2", "ia1", "ia2", "xamult"], 
            "data":[]
        }, 
        "sub":{
            "fields":["isub", "name", "lati", "long", "srg"], 
            "data":[
                [1, "S1", 0.000000, 0.000000, 0.1000000], 
                [2, "S2", 0.000000, 0.000000, 0.1000000]
            ]
        }, 
        "subnode":{
            "fields":["isub", "inode", "name", "ibus", "stat", "vm", "va"], 
            "data":[
                [1, 1, "S1_1_1", 1, 1, null, null], 
                [1, 2, "S1_1_2", 1, 1, null, null], 
                [1, 3, "S1_1_3", 1, 1, null, null], 
                [1, 4, "S1_1_4", 1, 1, null, null], 
                [1, 5, "S1_1_5", 1, 1, null, null], 
                [1, 6, "S1_1_6", 1, 1, null, null], 
                [2, 1, "S2_2_1", 2, 1, null, null], 
                [2, 2, "S2_2_2", 2, 1, null, null], 
                [2, 3, "S2_2_3", 2, 1, null, null], 
                [2, 4, "S2_2_4", 2, 1, null, null], 
                [2, 5, "S2_2_5", 2, 1, null, null], 
                [2, 6, "S2_2_6", 2, 1, null, null], 
                [2, 7, "S2_2_7", 2, 1, null, null], 
                [2, 8, "S2_2_8", 2, 1, null, null], 
                [2, 9, "S2_2_9", 3, 1, null, null], 
                [2, 10, "S2_2_10", 3, 1, null, null], 
                [2, 11, "S2_2_11", 3, 1, null, null], 
                [2, 12, "S2_2_12", 3, 1, null, null], 
                [2, 13, "S2_2_13", 3, 1, null, null], 
                [2, 14, "S2_2_14", 3, 1, null, null], 
                [2, 15, "S2_2_15", 3, 1, null, null], 
                [2, 16, "S2_2_16", 3, 1, null, null], 
                [2, 17, "S2_2_17", 4, 1, null, null], 
                [2, 18, "S2_2_18", 4, 1, null, null], 
                [2, 19, "S2_2_19", 4, 1, null, null], 
                [2, 20, "S2_2_20", 4, 1, null, null], 
                [2, 21, "S2_2_21", 4, 1, null, null], 
                [2, 22, "S2_2_22", 4, 1, null, null], 
                [2, 23, "S2_2_23", 5, 1, null, null], 
                [2, 24, "S2_2_24", 5, 1, null, null], 
                [2, 25, "S2_2_25", 5, 1, null, null], 
                [2, 26, "S2_2_26", 5, 1, null, null], 
                [2, 27, "S2_2_27", 5, 1, null, null], 
                [2, 28, "S2_2_28", 5, 1, null, null]
            ]
        }, 
        "subswd":{
            "fields":["isub", "inode", "jnode", "swdid", "name", "type", "stat", "nstat", "xpu", "rsetnam"], 
            "data":[
                [1, 1, 2, "1", "", 2, 1, 1, 0.1000000E-03, 0, 0, 0],
                [1, 1, 5, "1", "", 3, 0, 0, 0.1000000E-03, 0, 0, 0],
                [1, 1, 6, "1", "", 3, 0, 0, 0.1000000E-03, 0, 0, 0],
                [1, 2, 5, "1", "", 3, 1, 1, 0.1000000E-03, 0, 0, 0],
                [1, 2, 6, "1", "", 3, 1, 1, 0.1000000E-03, 0, 0, 0],
                [1, 3, 5, "1", "", 2, 1, 1, 0.1000000E-03, 0, 0, 0],
                [1, 4, 6, "1", "", 2, 1, 1, 0.1000000E-03, 0, 0, 0],
                [2, 1, 2, "1", "", 2, 1, 1, 0.1000000E-03, 0, 0, 0],
                [2, 1, 6, "1", "", 3, 0, 0, 0.1000000E-03, 0, 0, 0],
                [2, 1, 7, "1", "", 3, 0, 0, 0.1000000E-03, 0, 0, 0],
                [2, 1, 8, "1", "", 3, 0, 0, 0.1000000E-03, 0, 0, 0],
                [2, 2, 6, "1", "", 3, 1, 1, 0.1000000E-03, 0, 0, 0],
                [2, 2, 7, "1", "", 3, 1, 1, 0.1000000E-03, 0, 0, 0],
                [2, 2, 8, "1", "", 3, 1, 1, 0.1000000E-03, 0, 0, 0],
                [2, 3, 6, "1", "", 2, 1, 1, 0.1000000E-03, 0, 0, 0],
                [2, 4, 7, "1", "", 2, 1, 1, 0.1000000E-03, 0, 0, 0],
                [2, 5, 8, "1", "", 2, 1, 1, 0.1000000E-03, 0, 0, 0],
                [2, 9, 10, "1", "", 2, 1, 1, 0.1000000E-03, 0, 0, 0],
                [2, 9, 14, "1", "", 3, 0, 0, 0.1000000E-03, 0, 0, 0],
                [2, 9, 15, "1", "", 3, 0, 0, 0.1000000E-03, 0, 0, 0],
                [2, 9, 16, "1", "", 3, 0, 0, 0.1000000E-03, 0, 0, 0],
                [2, 10, 14, "1", "", 3, 1, 1, 0.1000000E-03, 0, 0, 0],
                [2, 10, 15, "1", "", 3, 1, 1, 0.1000000E-03, 0, 0, 0],
                [2, 10, 16, "1", "", 3, 1, 1, 0.1000000E-03, 0, 0, 0],
                [2, 11, 14, "1", "", 2, 1, 1, 0.1000000E-03, 0, 0, 0],
                [2, 12, 15, "1", "", 2, 1, 1, 0.1000000E-03, 0, 0, 0],
                [2, 13, 16, "1", "", 2, 1, 1, 0.1000000E-03, 0, 0, 0],
                [2, 17, 18, "1", "", 2, 1, 1, 0.1000000E-03, 0, 0, 0],
                [2, 17, 21, "1", "", 3, 0, 0, 0.1000000E-03, 0, 0, 0],
                [2, 17, 22, "1", "", 3, 0, 0, 0.1000000E-03, 0, 0, 0],
                [2, 18, 21, "1", "", 3, 1, 1, 0.1000000E-03, 0, 0, 0],
                [2, 18, 22, "1", "", 3, 1, 1, 0.1000000E-03, 0, 0, 0],
                [2, 19, 21, "1", "", 2, 1, 1, 0.1000000E-03, 0, 0, 0],
                [2, 20, 22, "1", "", 2, 1, 1, 0.1000000E-03, 0, 0, 0],
                [2, 23, 24, "1", "", 2, 1, 1, 0.1000000E-03, 0, 0, 0],
                [2, 23, 27, "1", "", 3, 0, 0, 0.1000000E-03, 0, 0, 0],
                [2, 23, 28, "1", "", 3, 0, 0, 0.1000000E-03, 0, 0, 0],
                [2, 24, 27, "1", "", 3, 1, 1, 0.1000000E-03, 0, 0, 0],
                [2, 24, 28, "1", "", 3, 1, 1, 0.1000000E-03, 0, 0, 0],
                [2, 25, 27, "1", "", 2, 1, 1, 0.1000000E-03, 0, 0, 0],
                [2, 26, 28, "1", "", 2, 1, 1, 0.1000000E-03, 0, 0, 0]
            ]
        }, 
        "subterm":{
            "fields":["isub", "inode", "type", "eqid", "ibus", "jbus", "kbus"], 
            "data":[
                [1, 4, "M", "2", 1, null, null], 
                [1, 3, "B", "3", 1, 2, null], 
                [2, 5, "B", "3", 2, 1, null], 
                [2, 3, "2", "3", 2, 3, null], 
                [2, 4, "3", "2", 2, 4, 5], 
                [2, 12, "M", "1", 3, null, null], 
                [2, 13, "S", "1", 3, null, null], 
                [2, 11, "2", "3", 3, 2, null], 
                [2, 20, "L", "1", 4, null, null], 
                [2, 19, "3", "2", 4, 2, 5], 
                [2, 26, "L", "1", 5, null, null], 
                [2, 25, "3", "2", 5, 2, 4]
            ]
        }
    }
}
